.SUBCKT POT 1 T 2 PARAMS: VALUE=1k SET=0.5
RT 1 T {VALUE*(1-SET)+.001}
RB T 2 {VALUE*SET+.001}
.ENDS